data/irish_network/psse/SummerNightValley2016.raw
0,   100.00          / PSS/E-30.3    MON, NOV 18 2013  18:10
AITYTFS Summer Night Valley 2016

    10,'F_M         ',  38.0000,1,     0.000,     0.000,   2,   1,1.02876, -24.2870,   2
    11,'FMN LOOP    ',  38.0000,1,     0.000,     0.000,   2,   1,1.02736, -23.5490,   2
    12,'BEDFORD     ',  38.0000,1,     0.000,     0.000,   1,   1,1.02382, -23.6225,   2
    13,'M_R         ',  38.0000,1,     0.000,     0.000,   1,   1,1.02676, -23.5392,   2
    14,'F_I         ',  38.0000,1,     0.000,     0.000,   2,   1,1.04458, -24.3068,   2
    15,'I_M         ',  38.0000,1,     0.000,     0.000,   2,   1,1.02070, -23.9731,   2
  1021,'ARDNACRU    ', 110.0000,1,     0.000,     0.000,   4,   1,1.00194, -13.0147,   1
  1041,'AGHADA      ', 110.0000,1,     0.000,     0.000,   3,   1,0.99905, -13.2976,   1
  1042,'AGHADA      ', 220.0000,1,     0.000,     0.000,   3,   1,1.00000, -12.5270,   1
  1052,'AGHADA_B    ', 220.0000,1,     0.000,     0.000,   3,   1,0.99767, -12.2144,   1
  1061,'ARIGNA      ', 110.0000,1,     0.000,     0.000,   9,   1,0.99913, -15.6547,   2
  1062,'AGH_AT14    ', 220.0000,1,     0.000,     0.000,   3,   1,1.00000, -12.5270,   1
  1071,'AGANNYGA    ', 110.0000,1,     0.000,     0.000,   4,   1,1.00078, -12.6010,   1
  1072,'AGHT2102    ', 220.0000,1,     0.000,     0.000,   3,   1,1.00000, -12.5308,   1
  1081,'AHANE       ', 110.0000,1,     0.000,     0.000,   7,   1,1.00437, -12.9187,   2
  1091,'ADAMSTOW    ', 110.0000,1,     0.000,     0.000,   1,   1,0.99120, -24.1151,   2
  1101,'ANNER       ', 110.0000,1,     0.000,     0.000,   5,   1,0.99386, -15.9879,   5
  1121,'ARKLOW      ', 110.0000,1,     0.000,     0.000,   6,   1,1.00291, -20.1869,   1
  1122,'ARKLOW      ', 220.0000,1,     0.000,     0.000,   6,   1,0.99903, -19.8034,   1
  1131,'ATHEA       ', 110.0000,1,     0.000,     0.000,   7,   1,0.99959,  -6.1754,   4
  1141,'ATHLONE     ', 110.0000,1,     0.000,     0.000,   9,   1,0.99796, -15.6104,   1
  1151,'ATHEA-2     ', 110.0000,1,     0.000,     0.000,   7,   1,0.99959,  -6.1754,   1
  1161,'AUGHINIS    ', 110.0000,1,     0.000,     0.000,   7,   1,1.00000, -10.2206,   1
  1181,'ARVA        ', 110.0000,1,     0.000,     0.000,  10,   1,0.99706, -18.7739,   1
  1201,'ARTANE      ', 110.0000,1,     0.000,     0.000,   1,   1,1.00899, -22.5978,   2
  1211,'BALLYVOU    ', 110.0000,1,     0.000,     0.000,   3,   1,1.05674,  -7.8507,   1
  1212,'BALLYVOU    ', 220.0000,1,     0.000,     0.000,   3,   1,0.99846,  -8.7253,   1
  1221,'ATHY        ', 110.0000,1,     0.000,     0.000,   8,   1,1.00754, -19.5367,   1
  1231,'BALLYWAT    ', 110.0000,1,     0.000,     0.000,   6,   1,1.00254, -18.1578,   4
  1251,'BOOLTIAG    ', 110.0000,1,     0.000,     0.000,   4,   1,1.00707, -11.5168,   2
  1271,'BALTRASN    ', 110.0000,1,     0.000,     0.000,  10,   1,1.00026, -22.1323,   1
  1281,'BALLYLIC    ', 110.0000,1,     0.000,     0.000,   3,   1,0.99929, -11.3506,   2
  1301,'BALLYBEG    ', 110.0000,1,     0.000,     0.000,   6,   1,1.00039, -21.0190,   1
  1311,'CORDAL      ', 110.0000,1,     0.000,     0.000,   3,   1,0.99884,  -6.3112,   1
  1321,'BLAKE       ', 110.0000,1,     0.000,     0.000,   8,   1,0.99602, -20.8659,   2
  1341,'BINBANE     ', 110.0000,1,     0.000,     0.000,   9,   1,0.99640, -13.7069,   2
  1351,'BARODA      ', 110.0000,1,     0.000,     0.000,   8,   1,0.99366, -20.7190,   1
  1361,'BALLYDIN    ', 110.0000,1,     0.000,     0.000,   5,   1,0.99615, -16.4969,   1
  1381,'BARNAHEL    ', 110.0000,1,     0.000,     0.000,   3,   1,0.99723, -13.3814,   1
  1391,'BARNAHEL    ', 110.0000,1,     0.000,     0.000,   3,   1,0.99410, -13.3764,   1
  1401,'BELLACOR    ', 110.0000,1,     0.000,     0.000,   9,   1,1.01314, -15.2163,   1
  1421,'BLACKROC    ', 110.0000,1,     0.000,     0.000,   1,   1,0.99748, -22.1423,   2
  1441,'BANDON      ', 110.0000,1,     0.000,     0.000,   3,   1,0.98891, -12.9884,   1
  1451,'CLOGHRAN    ', 110.0000,1,     0.000,     0.000,   1,   1,0.99632, -22.5588,   1
  1461,'BARRYMOR    ', 110.0000,1,     0.000,     0.000,   5,   1,0.99574, -14.0922,   2
  1481,'BUTLERST    ', 110.0000,1,     0.000,     0.000,   5,   1,0.99787, -17.8766,   1
  1492,'BALLAKEL    ', 220.0000,1,     0.000,     0.000,  10,   1,1.01532, -20.1176,   1
  1501,'BRINNY      ', 110.0000,1,     0.000,     0.000,   3,   1,0.98874, -12.9985,   5
  1511,'KNOCKNAG    ', 110.0000,1,     0.000,     0.000,   7,   1,1.00000,  -5.8564,   1
  1541,'BANOGE      ', 110.0000,1,     0.000,     0.000,   6,   1,1.00132, -19.3154,   1
  1551,'BOGGERAG    ', 110.0000,1,     0.000,     0.000,   3,   1,1.00000,  -6.9941,   1
  1571,'ARDNAGAP    ', 110.0000,1,     0.000,     0.000,   9,   1,0.99336, -13.3121,   2
  1581,'CABRA       ', 110.0000,1,     0.000,     0.000,   1,   1,1.00887, -22.6124,   2
  1601,'CLASHAVO    ', 110.0000,1,     0.000,     0.000,   3,   1,0.99738, -11.8390,   1
  1602,'CLASHAVO    ', 220.0000,1,     0.000,     0.000,   3,   1,0.99845,  -9.8245,   1
  1611,'CLONKEEN    ', 110.0000,1,     0.000,     0.000,   7,   1,0.99960, -11.2557,   1
  1621,'COOLROE     ', 110.0000,1,     0.000,     0.000,   3,   1,0.99550, -13.0947,   1
  1631,'CORDERRY    ', 110.0000,1,     0.000,     0.000,   9,   1,1.00169, -15.0248,   1
  1641,'CASHLA      ', 110.0000,1,     0.000,     0.000,   9,   1,1.01372, -15.1982,   1
  1642,'CASHLA      ', 220.0000,1,     0.000,     0.000,   9,   1,1.01707, -15.5069,   1
  1651,'CLAHANE     ', 110.0000,1,     0.000,     0.000,   7,   1,1.00731,  -9.5592,   1
  1661,'CASTLEBA    ', 110.0000,1,     0.000,     0.000,   9,   1,1.03000, -15.8688,   1
  1681,'CARRIGAD    ', 110.0000,1,     0.000,     0.000,   3,   1,0.99623, -12.3032,   1
  1691,'CENTRAL     ', 110.0000,1,     0.000,     0.000,   1,   1,0.99759, -22.0940,   1
  1701,'CATH_FAL    ', 110.0000,1,     0.000,     0.000,   9,   1,0.99881, -13.9061,   1
  1711,'CROMCAST    ', 110.0000,1,     0.000,     0.000,   1,   1,1.01797, -23.5970,   1
  1721,'CAHIR       ', 110.0000,1,     0.000,     0.000,   5,   1,0.99692, -14.7838,   1
  1731,'CROMCAST    ', 110.0000,1,     0.000,     0.000,   1,   1,1.01797, -23.5970,   1
  1741,'CARRICKM    ', 110.0000,1,     0.000,     0.000,   2,   1,0.99735, -22.0730,   1
  1742,'CARRICKM    ', 220.0000,1,     0.000,     0.000,   2,   1,0.99790, -20.9202,   1
  1761,'CLIFF       ', 110.0000,1,     0.000,     0.000,   9,   1,0.99883, -13.9065,   1
  1781,'CASTLEFA    ', 110.0000,1,     0.000,     0.000,   7,   1,0.99962, -10.2413,   5
  1791,'BRACKLON    ', 110.0000,1,     0.000,     0.000,   8,   1,0.99602, -19.9275,   1
  1801,'COOKSTOW    ', 110.0000,1,     0.000,     0.000,   1,   1,0.99772, -22.1280,   2
  1821,'CLOON       ', 110.0000,1,     0.000,     0.000,   9,   1,1.01424, -15.5338,   1
  1831,'SCREEB      ', 110.0000,1,     0.000,     0.000,   9,   1,1.01254, -15.4064,   2
  1841,'CRANE       ', 110.0000,1,     0.000,     0.000,   6,   1,1.00145, -18.3792,   1
  1851,'CHERRYWO    ', 110.0000,1,     0.000,     0.000,   2,   1,0.99565, -22.1770,   1
  1861,'CARICKON    ', 110.0000,1,     0.000,     0.000,   9,   1,1.00004, -16.6616,   1
  1871,'COLLEGE     ', 110.0000,1,     0.000,     0.000,   2,   1,0.99815, -22.3979,   1
  1881,'CHARLEVI    ', 110.0000,1,     0.000,     0.000,   3,   1,0.99713, -13.4494,   1
  1891,'CAULSTOW    ', 110.0000,1,     0.000,     0.000,  10,   1,1.00068, -21.9175,   1
  1901,'CARLOW      ', 110.0000,1,     0.000,     0.000,   6,   1,1.01402, -19.9167,   1
  1911,'CUILLEEN    ', 110.0000,1,     0.000,     0.000,   9,   1,0.99799, -15.6114,   1
  1921,'COW CROS    ', 110.0000,1,     0.000,     0.000,   3,   1,0.99735, -13.4476,   1
  1931,'CUNGHILL    ', 110.0000,1,     0.000,     0.000,   9,   1,1.00146, -14.6090,   4
  1941,'CUSHALIN    ', 110.0000,1,     0.000,     0.000,   8,   1,1.00000, -17.8216,   1
  1951,'CARROWBE    ', 110.0000,1,     0.000,     0.000,   9,   1,1.02862, -16.2323,   1
  1961,'CASTLEVI    ', 110.0000,1,     0.000,     0.000,   3,   1,0.99676, -13.5846,   1
  1971,'COOMAGEA    ', 110.0000,1,     0.000,     0.000,   7,   1,1.04785,  -6.3542,   4
  1981,'CORRACLA    ', 110.0000,1,     0.000,     0.000,   9,   1,0.99355, -17.4390,   1
  1991,'CASTLEDO    ', 110.0000,1,     0.000,     0.000,   6,   1,1.00033, -18.0925,   1
  2001,'CULLENAG    ', 110.0000,1,     0.000,     0.000,   5,   1,0.99802, -17.4610,   1
  2002,'CULLENAG    ', 220.0000,1,     0.000,     0.000,   5,   1,0.99903, -17.1337,   1
  2021,'CITY WES    ', 110.0000,1,     0.000,     0.000,   1,   1,0.98912, -24.3996,   2
  2041,'CORDUFF     ', 110.0000,1,     0.000,     0.000,   2,   1,0.99843, -22.3426,   1
  2042,'CORDUFF     ', 220.0000,1,     0.000,     0.000,   2,   1,1.00482, -21.5539,   1
  2051,'BLACKPOO    ', 110.0000,1,     0.000,     0.000,   3,   1,0.99569, -13.5470,   1
  2052,'CORDUFFB    ', 220.0000,1,     0.000,     0.000,   2,   1,1.00482, -21.5539,   1
  2081,'DUNKETTL    ', 110.0000,4,     0.000,     0.000,   3,   1,1.00000,   0.0000,   5
  2090,'WEST GAL    ', 110.0000,1,     0.000,     0.000,   9,   1,1.00524, -13.6446,   1
  2091,'WEST GAL    ', 110.0000,1,     0.000,     0.000,   9,   1,1.01429, -15.2352,   1
  2101,'DUNDALK     ', 110.0000,1,     0.000,     0.000,  10,   1,1.01816, -20.8967,   2
  2111,'UGOOL       ', 110.0000,1,     0.000,     0.000,   9,   1,1.00000, -12.9059,   1
  2121,'DRUMLINE    ', 110.0000,1,     0.000,     0.000,   4,   1,0.99931, -13.1896,   1
  2131,'DROMADA     ', 110.0000,1,     0.000,     0.000,   3,   1,1.00000,  -6.0848,   1
  2141,'DUNGARVA    ', 110.0000,1,     0.000,     0.000,   5,   1,0.99682, -16.3810,   1
  2161,'DOON        ', 110.0000,1,     0.000,     0.000,   5,   1,0.99462, -15.9547,   1
  2181,'DRYBRIDG    ', 110.0000,1,     0.000,     0.000,  10,   1,1.00337, -21.7601,   1
  2202,'DUNSTOWN    ', 220.0000,1,     0.000,     0.000,   2,   1,1.00384, -21.7623,   1
  2204,'DUNSTOWN    ', 380.0000,1,     0.000,     0.000,   2,   1,1.01488, -21.0301,   1
  2221,'DUNMANWA    ', 110.0000,1,     0.000,     0.000,   3,   1,0.99345, -12.0052,   1
  2231,'DERRYBRI    ', 110.0000,1,     0.000,     0.000,   4,   1,1.00133, -12.1473,   2
  2241,'DALLOW      ', 110.0000,1,     0.000,     0.000,   5,   1,0.99906, -15.6718,   2
  2251,'DARDISTO    ', 110.0000,1,     0.000,     0.000,   1,   1,1.01812, -23.5815,   2
  2261,'DERRYIRO    ', 110.0000,1,     0.000,     0.000,   8,   1,0.99474, -20.2952,   1
  2281,'DALTON      ', 110.0000,1,     0.000,     0.000,   9,   1,1.02338, -15.8455,   1
  2301,'DUNFIRTH    ', 110.0000,1,     0.000,     0.000,   8,   1,0.99638, -21.3247,   2
  2321,'DRUMKEEN    ', 110.0000,1,     0.000,     0.000,   9,   1,1.00721, -11.8699,   1
  2361,'ENNIS       ', 110.0000,1,     0.000,     0.000,   4,   1,1.00000, -13.0129,   1
  2391,'KILL HIL    ', 110.0000,1,     0.000,     0.000,   5,   1,0.99951, -14.0918,   1
  2401,'MOUNTLUC    ', 110.0000,1,     0.000,     0.000,   8,   1,1.00000, -18.0587,   1
  2411,'KNOCKMUL    ', 110.0000,1,     0.000,     0.000,   6,   1,0.99858, -18.2751,   1
  2481,'FASS EAS    ', 110.0000,1,     0.000,     0.000,   2,   1,0.99589, -22.1694,   2
  2491,'FASS WES    ', 110.0000,1,     0.000,     0.000,   2,   1,0.99596, -22.1647,   2
  2521,'FLAGFORD    ', 110.0000,1,     0.000,     0.000,   9,   1,1.00027, -16.6364,   1
  2522,'FLAGFORD    ', 220.0000,1,     0.000,     0.000,   9,   1,1.01242, -16.8245,   1
  2541,'FRN ST A    ', 110.0000,1,     0.000,     0.000,   1,   1,1.00340, -21.8354,   2
  2551,'FRN ST B    ', 110.0000,1,     0.000,     0.000,   1,   1,1.00425, -22.8413,   2
  2561,'FIN_URBA    ', 110.0000,1,     0.000,     0.000,   2,   1,1.00906, -22.5347,   2
  2562,'FINGLAS     ', 220.0000,1,     0.000,     0.000,   2,   1,1.00522, -21.5419,   1
  2563,'FINGLAS2    ', 220.0000,1,     0.000,     0.000,   2,   1,1.00522, -21.5419,   1
  2571,'FIN_RURA    ', 110.0000,1,     0.000,     0.000,   2,   1,1.01802, -23.4478,   2
  2581,'KILDONAN    ', 110.0000,1,     0.000,     0.000,   2,   1,0.99753, -22.4734,   2
  2671,'GARVAGH     ', 110.0000,1,     0.000,     0.000,   9,   1,1.00113, -14.7664,   4
  2681,'GILRA       ', 110.0000,1,     0.000,     0.000,   9,   1,0.99731, -16.8234,   2
  2701,'GLASMORE    ', 110.0000,1,     0.000,     0.000,   1,   1,1.01561, -23.9324,   2
  2721,'GRIFFINR    ', 110.0000,1,     0.000,     0.000,   2,   1,0.99664, -21.7635,   2
  2731,'GLANLEE     ', 110.0000,1,     0.000,     0.000,   7,   1,1.04750,  -6.3314,   4
  2741,'GREAT IS    ', 110.0000,1,     0.000,     0.000,   6,   1,0.99986, -18.1598,   1
  2742,'GREAT IS    ', 220.0000,1,     0.000,     0.000,   6,   1,1.00030, -17.9921,   1
  2761,'GRANGE      ', 110.0000,1,     0.000,     0.000,   1,   1,1.01814, -23.6012,   2
  2771,'GARROW      ', 110.0000,1,     0.000,     0.000,   7,   1,1.05191,  -7.1161,   7
  2780,'GALWAY      ', 110.0000,1,     0.000,     0.000,   9,   1,1.01315, -15.0609,   1
  2781,'GALWAY      ', 110.0000,1,     0.000,     0.000,   9,   1,1.01315, -15.0609,   1
  2801,'GOLAGH      ', 110.0000,1,     0.000,     0.000,   9,   1,0.99974, -12.6024,   4
  2821,'GORTAWEE    ', 110.0000,1,     0.000,     0.000,   9,   1,0.99121, -18.0607,   1
  2841,'GORMAN      ', 110.0000,1,     0.000,     0.000,  10,   1,1.00386, -21.5125,   1
  2842,'GORMAN      ', 220.0000,1,     0.000,     0.000,  10,   1,1.00943, -20.9840,   1
  2852,'GLANAGOW    ', 220.0000,1,     0.000,     0.000,   3,   1,0.99748, -12.1904,   1
  2861,'GRANGE C    ', 110.0000,1,     0.000,     0.000,   1,   1,0.99134, -24.1037,   2
  2870,'CLOGHER     ', 110.0000,1,     0.000,     0.000,   9,   1,1.00026, -12.7382,   1
  2871,'CLOGHER     ', 110.0000,1,     0.000,     0.000,   9,   1,1.00026, -12.7382,   1
  2881,'GLENLARA    ', 110.0000,1,     0.000,     0.000,   3,   1,0.99739, -13.2390,   2
  2941,'HAROLDS     ', 110.0000,1,     0.000,     0.000,   1,   1,1.00349, -21.8231,   2
  2951,'HEUSTON     ', 110.0000,1,     0.000,     0.000,   1,   1,1.00433, -22.8322,   2
  2962,'HUNTSTOW    ', 220.0000,1,     0.000,     0.000,   2,   1,1.00475, -21.4891,   4
  2972,'HUNTSTOW    ', 220.0000,1,     0.000,     0.000,   2,   1,1.00494, -21.5546,   4
  2981,'HARTNETT    ', 110.0000,1,     0.000,     0.000,   3,   1,0.99596, -12.2269,   2
  3061,'INISCARR    ', 110.0000,1,     0.000,     0.000,   3,   1,0.99563, -12.9790,   1
  3081,'INCH_CIT    ', 110.0000,1,     0.000,     0.000,   2,   1,1.00434, -22.8101,   2
  3082,'INCHICOR    ', 220.0000,1,     0.000,     0.000,   2,   1,1.00350, -21.6456,   1
  3091,'INCH_COU    ', 110.0000,1,     0.000,     0.000,   2,   1,0.99401, -23.9595,   2
  3101,'IKERRIN     ', 110.0000,1,     0.000,     0.000,   5,   1,0.99900, -14.2710,   2
  3122,'IRISHTOW    ', 220.0000,1,     0.000,     0.000,   2,   1,1.00000, -20.9554,   1
  3190,'NORTH KE    ', 110.0000,1,     0.000,     0.000,   7,   1,1.00610,  -9.7113,   1
  3191,'NORTH KE    ', 110.0000,1,     0.000,     0.000,   7,   1,1.00046,  -6.8449,   1
  3192,'NORTH KE    ', 220.0000,1,     0.000,     0.000,   7,   1,1.01005,  -8.5013,   1
  3200,'KNOCKRAH    ', 110.0000,1,     0.000,     0.000,   3,   1,0.99893, -12.5573,   1
  3201,'KNOCKRAH    ', 110.0000,1,     0.000,     0.000,   3,   1,0.99764, -13.5289,   1
  3202,'KNOCKRAH    ', 220.0000,1,     0.000,     0.000,   3,   1,0.99893, -12.5573,   1
  3203,'KNOCKRAH    ', 220.0000,1,     0.000,     0.000,   3,   1,0.99893, -12.5573,   1
  3209,'KNOCKRAH    ', 110.0000,1,     0.000,     0.000,   3,   1,0.99764, -13.5289,   1
  3211,'KNOCKAVA    ', 110.0000,1,     0.000,     0.000,   4,   1,1.00084, -12.2206,   1
  3221,'KILBARRY    ', 110.0000,1,     0.000,     0.000,   3,   1,0.99570, -13.5462,   1
  3241,'KILTEEL     ', 110.0000,1,     0.000,     0.000,   8,   1,0.99291, -21.4050,   2
  3251,'REAMORE     ', 110.0000,1,     0.000,     0.000,   7,   1,1.00653,  -9.5302,   1
  3261,'KILKENNY    ', 110.0000,1,     0.000,     0.000,   6,   1,1.00522, -19.9057,   1
  3281,'KILLONAN    ', 110.0000,1,     0.000,     0.000,   7,   1,1.00439, -12.9131,   1
  3282,'KILLONAN    ', 220.0000,1,     0.000,     0.000,   7,   1,0.99910, -12.5893,   1
  3301,'KNOCKERA    ', 110.0000,1,     0.000,     0.000,   7,   1,1.00059, -10.8529,   1
  3321,'KNOCKUMB    ', 110.0000,1,     0.000,     0.000,  10,   1,0.99837, -21.7659,   5
  3330,'BALLYNAH    ', 110.0000,1,     0.000,     0.000,   3,   1,0.99768,  -6.8112,   1
  3331,'BALLYNAH    ', 110.0000,1,     0.000,     0.000,   3,   1,0.99768,  -6.8112,   1
  3332,'BALLYNAH    ', 220.0000,1,     0.000,     0.000,   3,   1,1.00176,  -8.3016,   1
  3341,'KELLIS      ', 110.0000,1,     0.000,     0.000,   6,   1,1.01543, -19.9702,   1
  3342,'KELLIS      ', 220.0000,1,     0.000,     0.000,   6,   1,0.99736, -19.9902,   1
  3361,'KILTOY      ', 110.0000,1,     0.000,     0.000,   9,   1,1.00741, -12.0575,   5
  3381,'KINNEGAD    ', 110.0000,1,     0.000,     0.000,   8,   1,0.99435, -20.4712,   1
  3391,'KNOCKACU    ', 110.0000,1,     0.000,     0.000,   3,   1,1.00000,  -5.6884,   1
  3401,'KILLOTER    ', 110.0000,1,     0.000,     0.000,   5,   1,0.99811, -17.9250,   1
  3421,'KILMORE     ', 110.0000,1,     0.000,     0.000,   1,   1,1.01796, -23.5966,   2
  3431,'KILMAHUD    ', 110.0000,1,     0.000,     0.000,   1,   1,0.99105, -24.1228,   1
  3462,'KILPADDO    ', 220.0000,1,     0.000,     0.000,   7,   1,1.01345,  -9.2009,   1
  3472,'KILPADDO    ', 220.0000,1,     0.000,     0.000,   7,   1,1.01252,  -9.5368,   1
  3501,'LANESBOR    ', 110.0000,1,     0.000,     0.000,   9,   1,1.00000, -15.5536,   1
  3521,'LOUTHA      ', 110.0000,1,     0.000,     0.000,  10,   1,1.02251, -20.6537,   1
  3522,'LOUTH       ', 220.0000,1,     0.000,     0.000,  10,   1,1.01531, -20.1175,   1
  3541,'LIMERICK    ', 110.0000,1,     0.000,     0.000,   7,   1,1.00143, -12.7486,   1
  3561,'LISDRUM     ', 110.0000,1,     0.000,     0.000,  10,   1,1.00635, -20.1215,   1
...
0 / END OF BUS DATA, BEGIN LOAD DATA
    10,'LD',1,   2,   1,    21.680,     3.810,     0.000,     0.000,     0.000,     0.000,   2
    11,'LD',1,   2,   1,    12.310,     5.400,     0.000,     0.000,     0.000,     0.000,   2
    12,'LD',1,   1,   1,    21.690,     3.120,     0.000,     0.000,     0.000,     0.000,   2
    13,'LD',1,   1,   1,    20.890,     0.440,     0.000,     0.000,     0.000,     0.000,   2
    14,'LD',1,   2,   1,    19.920,     6.550,     0.000,     0.000,     0.000,     0.000,   2
    15,'LD',1,   2,   1,    17.020,     5.600,     0.000,     0.000,     0.000,     0.000,   2
  1041,'LD',1,   3,   1,     0.490,     0.100,     0.000,     0.000,     0.000,     0.000,   2
  1101,'I ',1,   5,   2,    11.000,     6.000,     0.000,     0.000,     0.000,     0.000,   5
  1101,'MI',0,   5,   2,     5.620,    -1.020,     0.000,     0.000,     0.000,     0.000,   5
  4341,'I ',1,   3,   2,     1.300,     0.390,     0.000,     0.000,     0.000,     0.000,   5
 10204,'LD',1,   4,   1,     7.040,     0.400,     0.000,     0.000,     0.000,     0.000,   2
 10205,'LD',1,   4,   1,     7.040,     0.400,     0.000,     0.000,     0.000,     0.000,   2
 10470,'HL',1,   3,   1,     5.550,     1.990,     0.000,     0.000,     0.000,     0.000,   1
 10471,'HL',0,   3,   1,    11.990,     4.310,     0.000,     0.000,     0.000,     0.000,   3
 10602,'LD',1,   9,   1,     5.330,     0.080,     0.000,     0.000,     0.000,     0.000,   2
 10801,'LD',1,   7,   1,     0.770,     0.070,     0.000,     0.000,     0.000,     0.000,   2
 10901,'I ',1,   1,   2,     9.500,     3.120,     0.000,     0.000,     0.000,     0.000,   5
 10901,'LD',1,   1,   1,     1.750,     0.570,     0.000,     0.000,     0.000,     0.000,   2
 11201,'LD',1,   6,   1,     1.850,     0.610,     0.000,     0.000,     0.000,     0.000,   2
 11204,'LD',1,   6,   1,    12.230,     4.020,     0.000,     0.000,     0.000,     0.000,   2
 11404,'LD',1,   9,   1,    17.680,     3.580,     0.000,     0.000,     0.000,     0.000,   2
 12001,'LD',1,   1,   1,     4.330,     0.740,     0.000,     0.000,     0.000,     0.000,   2
 12201,'LD',1,   8,   1,     3.220,     0.220,     0.000,     0.000,     0.000,     0.000,   2
 12702,'LD',1,  10,   1,     3.460,     1.320,     0.000,     0.000,     0.000,     0.000,   2
 12804,'LD',1,   3,   1,     2.600,     0.920,     0.000,     0.000,     0.000,     0.000,   2
 13001,'LD',1,   6,   1,     2.670,     0.770,     0.000,     0.000,     0.000,     0.000,   2
 13204,'LD',1,   8,   1,     3.160,     0.270,     0.000,     0.000,     0.000,     0.000,   2
 13404,'LD',1,   9,   1,    21.620,     3.380,     0.000,     0.000,     0.000,     0.000,   2
 13501,'I ',1,   8,   2,     9.500,     2.850,     0.000,     0.000,     0.000,     0.000,   5
 13501,'LD',1,   8,   1,     3.390,     1.090,     0.000,     0.000,     0.000,     0.000,   2
 13601,'I ',1,   5,   2,     2.500,     0.750,     0.000,     0.000,     0.000,     0.000,   5
 13601,'MI',0,   5,   2,     6.710,     2.010,     0.000,     0.000,     0.000,     0.000,   5
 13604,'LD',1,   5,   1,     3.090,     0.800,     0.000,     0.000,     0.000,     0.000,   2
 13802,'LD',1,   3,   1,    16.170,     4.820,     0.000,     0.000,     0.000,     0.000,   2
 13804,'LD',1,   3,   1,     7.400,     0.820,     0.000,     0.000,     0.000,     0.000,   2
 14004,'LD',1,   9,   1,     1.600,     0.570,     0.000,     0.000,     0.000,     0.000,   2
 14204,'LD',1,   1,   1,    12.240,    -1.950,     0.000,     0.000,     0.000,     0.000,   2
 14401,'LD',1,   3,   1,     1.870,     0.720,     0.000,     0.000,     0.000,     0.000,   2
 14404,'LD',1,   3,   1,    11.300,     2.790,     0.000,     0.000,     0.000,     0.000,   2
 14502,'I ',1,   1,   2,    23.750,     7.800,     0.000,     0.000,     0.000,     0.000,   5
 14604,'LD',1,   5,   1,     8.030,     2.800,     0.000,     0.000,     0.000,     0.000,   2
 14804,'LD',1,   5,   1,    10.390,     1.250,     0.000,     0.000,     0.000,     0.000,   2
 14902,'HL',0,  10,   1,     4.940,     1.780,     0.000,     0.000,     0.000,     0.000,   1
 15001,'I ',1,   3,   2,     4.590,     1.700,     0.000,     0.000,     0.000,     0.000,   5
 15001,'MI',0,   3,   2,     1.580,     0.150,     0.000,     0.000,     0.000,     0.000,   5
 15402,'LD',1,   6,   1,     4.260,     1.400,     0.000,     0.000,     0.000,     0.000,   2
 15704,'LD',1,   9,   1,     4.030,     1.340,     0.000,     0.000,     0.000,     0.000,   2
 15801,'LD',1,   1,   1,     2.780,     0.280,     0.000,     0.000,     0.000,     0.000,   2
 16202,'LD',1,   3,   1,     5.900,     0.760,     0.000,     0.000,     0.000,     0.000,   2
 16604,'LD',1,   9,   1,     9.260,     1.090,     0.000,     0.000,     0.000,     0.000,   2
 16901,'LD',1,   1,   1,     1.940,     0.000,     0.000,     0.000,     0.000,     0.000,   2
 17004,'LD',1,   9,   1,     3.930,     1.370,     0.000,     0.000,     0.000,     0.000,   2
 17204,'LD',1,   5,   1,    11.670,     1.930,     0.000,     0.000,     0.000,     0.000,   2
 17404,'LD',1,   2,   1,    22.140,    13.220,     0.000,     0.000,     0.000,     0.000,   2
 17802,'I ',1,   7,   2,    44.000,    13.200,     0.000,     0.000,     0.000,     0.000,   5
 17802,'MI',0,   7,   2,     5.000,     1.500,     0.000,     0.000,     0.000,     0.000,   5
 17901,'LD',1,   8,   1,     3.530,     1.170,     0.000,     0.000,     0.000,     0.000,   2
 18001,'LD',1,   1,   1,     1.090,     0.350,     0.000,     0.000,     0.000,     0.000,   2
 18004,'LD',1,   1,   1,    13.130,     0.120,     0.000,     0.000,     0.000,     0.000,   2
 18204,'LD',1,   9,   1,     6.930,     1.560,     0.000,     0.000,     0.000,     0.000,   2
 18304,'LD',1,   9,   1,     3.800,     1.250,     0.000,     0.000,     0.000,     0.000,   2
 18402,'LD',1,   6,   1,     5.310,     1.100,     0.000,     0.000,     0.000,     0.000,   2
 18404,'LD',1,   6,   1,     3.390,     0.570,     0.000,     0.000,     0.000,     0.000,   2
 18504,'I ',1,   2,   2,    19.000,     6.240,     0.000,     0.000,     0.000,     0.000,   5
 18504,'LD',1,   2,   1,     7.220,     2.370,     0.000,     0.000,     0.000,     0.000,   2
 18604,'LD',1,   9,   1,     8.160,     0.540,     0.000,     0.000,     0.000,     0.000,   2
 18701,'LD',1,   2,   1,    11.890,     2.390,     0.000,     0.000,     0.000,     0.000,   2
 18804,'LD',1,   3,   1,     5.340,     1.650,     0.000,     0.000,     0.000,     0.000,   2
 18901,'HL',0,  10,   1,     0.980,     0.350,     0.000,     0.000,     0.000,     0.000,   1
 19004,'LD',1,   6,   1,     6.000,     0.060,     0.000,     0.000,     0.000,     0.000,   2
 19204,'LD',1,   3,   1,     3.240,     0.550,     0.000,     0.000,     0.000,     0.000,   2
 19471,'HL',0,   8,   1,    12.010,     4.320,     0.000,     0.000,     0.000,     0.000,   4
 19504,'LD',1,   9,   1,     7.380,     0.870,     0.000,     0.000,     0.000,     0.000,   2
 19601,'LD',1,   3,   1,    10.160,     1.500,     0.000,     0.000,     0.000,     0.000,   2
 20201,'LD',1,   1,   1,    14.130,     5.200,     0.000,     0.000,     0.000,     0.000,   2
 20501,'LD',1,   3,   1,     5.430,     1.710,     0.000,     0.000,     0.000,     0.000,   2
 21004,'LD',1,  10,   1,     9.940,     0.280,     0.000,     0.000,     0.000,     0.000,   2
 21202,'LD',1,   4,   1,     2.930,     0.950,     0.000,     0.000,     0.000,     0.000,   2
 21204,'LD',1,   4,   1,     7.040,     0.240,     0.000,     0.000,     0.000,     0.000,   2
 21404,'LD',1,   5,   1,    11.050,     0.300,     0.000,     0.000,     0.000,     0.000,   2
 21604,'LD',1,   5,   1,     4.150,     0.590,     0.000,     0.000,     0.000,     0.000,   2
 21804,'LD',1,  10,   1,    18.480,     1.220,     0.000,     0.000,     0.000,     0.000,   2
 22204,'LD',1,   3,   1,     8.800,     1.360,     0.000,     0.000,     0.000,     0.000,   2
 22404,'LD',1,   5,   1,     4.120,     0.450,     0.000,     0.000,     0.000,     0.000,   2
 22501,'I ',1,   1,   2,    10.450,     3.434,     0.000,     0.000,     0.000,     0.000,   5
 22671,'HL',0,   8,   1,     0.300,     0.100,     0.000,     0.000,     0.000,     0.000,   1
 22672,'HL',0,   8,   1,     0.300,     0.100,     0.000,     0.000,     0.000,     0.000,   1
 22804,'LD',1,   9,   1,     6.360,     0.760,     0.000,     0.000,     0.000,     0.000,   2
 23001,'LD',1,   8,   1,     2.590,     0.080,     0.000,     0.000,     0.000,     0.000,   2
 23604,'LD',1,   4,   1,    17.240,     2.520,     0.000,     0.000,     0.000,     0.000,   2
 24104,'LD',1,   6,   1,     4.380,     1.440,     0.000,     0.000,     0.000,     0.000,   2
 24804,'LD',1,   2,   1,    14.230,     4.110,     0.000,     0.000,     0.000,     0.000,   2
 25604,'LD',1,   2,   1,    21.830,     4.430,     0.000,     0.000,     0.000,     0.000,   2
 26802,'I ',1,   9,   2,    10.440,     3.130,     0.000,     0.000,     0.000,     0.000,   5
 26802,'MI',0,   9,   2,     0.060,     0.020,     0.000,     0.000,     0.000,     0.000,   5
 27004,'LD',1,   1,   1,    20.150,     2.050,     0.000,     0.000,     0.000,     0.000,   2
 27204,'LD',1,   2,   1,    17.430,     4.130,     0.000,     0.000,     0.000,     0.000,   2
 27404,'LD',1,   6,   1,     0.970,    -0.040,     0.000,     0.000,     0.000,     0.000,   2
 27474,'HL',0,   6,   1,     8.490,     3.050,     0.000,     0.000,     0.000,     0.000,   1
 27604,'LD',1,   1,   1,    16.080,     3.000,     0.000,     0.000,     0.000,     0.000,   2
 27801,'LD',1,   9,   1,     7.930,     1.450,     0.000,     0.000,     0.000,     0.000,   2
 27804,'LD',1,   9,   1,    22.160,    -1.850,     0.000,     0.000,     0.000,     0.000,   2
 28201,'I ',1,   9,   2,    17.000,     5.100,     0.000,     0.000,     0.000,     0.000,   5
 28201,'MI',0,   9,   2,     3.890,     1.170,     0.000,     0.000,     0.000,     0.000,   5
 28204,'LD',1,   9,   1,     3.240,     1.100,     0.000,     0.000,     0.000,     0.000,   2
 28571,'HL',1,   3,   1,     2.040,     0.730,     0.000,     0.000,     0.000,     0.000,   1
 28601,'I ',1,   1,   2,     9.000,     2.700,     0.000,     0.000,     0.000,     0.000,   5
 28601,'LD',1,   1,   1,     5.660,     0.580,     0.000,     0.000,     0.000,     0.000,   2
 28604,'LD',1,   1,   1,    11.070,     0.540,     0.000,     0.000,     0.000,     0.000,   2
 28611,'I ',1,   1,   2,     9.000,     2.700,     0.000,     0.000,     0.000,     0.000,   5
 28804,'LD',1,   3,   1,     4.750,     1.230,     0.000,     0.000,     0.000,     0.000,   2
 29401,'LD',1,   1,   1,     6.010,     3.260,     0.000,     0.000,     0.000,     0.000,   2
 29501,'LD',1,   1,   1,     1.550,     0.490,     0.000,     0.000,     0.000,     0.000,   2
 29672,'HL',0,   2,   1,     7.180,     2.580,     0.000,     0.000,     0.000,     0.000,   4
 29801,'LD',1,   3,   1,     2.420,     0.790,     0.000,     0.000,     0.000,     0.000,   2
 30804,'LD',1,   2,   1,    25.910,     8.540,     0.000,     0.000,     0.000,     0.000,   2
 31004,'LD',1,   5,   1,     8.450,     1.870,     0.000,     0.000,     0.000,     0.000,   2
 31271,'HL',1,   2,   1,     3.020,     1.090,     0.000,     0.000,     0.000,     0.000,   4
 32201,'LD',1,   3,   1,     4.990,     2.020,     0.000,     0.000,     0.000,     0.000,   2
 32204,'LD',1,   3,   1,    16.690,    -0.310,     0.000,     0.000,     0.000,     0.000,   2
 32404,'LD',1,   8,   1,     9.420,     4.330,     0.000,     0.000,     0.000,     0.000,   2
 32604,'LD',1,   6,   1,    16.190,     2.530,     0.000,     0.000,     0.000,     0.000,   2
 33004,'LD',1,   7,   1,    12.500,     0.190,     0.000,     0.000,     0.000,     0.000,   2
 33201,'I ',1,  10,   2,    23.000,     6.900,     0.000,     0.000,     0.000,     0.000,   5
 33201,'MI',0,  10,   2,     6.440,     1.930,     0.000,     0.000,     0.000,     0.000,   5
 33801,'I ',1,   8,   2,     4.000,     1.200,     0.000,     0.000,     0.000,     0.000,   5
 33801,'MI',0,   8,   2,     7.730,     2.310,     0.000,     0.000,     0.000,     0.000,   5
 34001,'LD',1,   5,   1,     6.600,     1.450,     0.000,     0.000,     0.000,     0.000,   2
 34201,'LD',1,   1,   1,     8.530,     2.950,     0.000,     0.000,     0.000,     0.000,   2
 34301,'I ',1,   1,   2,    23.750,     7.120,     0.000,     0.000,     0.000,     0.000,   5
 35004,'LD',1,   9,   1,     2.890,     0.580,     0.000,     0.000,     0.000,     0.000,   2
 35074,'HL',1,   9,   1,     6.300,     2.260,     0.000,     0.000,     0.000,     0.000,   3
 35404,'LD',1,   7,   1,    26.800,     2.510,     0.000,     0.000,     0.000,     0.000,   2
 35604,'LD',1,  10,   1,     8.080,     1.150,     0.000,     0.000,     0.000,     0.000,   2
 35804,'LD',1,   9,   1,    20.810,     6.830,     0.000,     0.000,     0.000,     0.000,   2
 36001,'LD',1,   3,   1,     7.420,     2.620,     0.000,     0.000,     0.000,     0.000,   2
 36201,'I ',1,   5,   2,    16.600,     3.600,     0.000,     0.000,     0.000,     0.000,   5
 36201,'MI',0,   5,   2,     2.390,     2.100,     0.000,     0.000,     0.000,     0.000,   5
 37501,'LD',1,   1,   1,     7.690,     0.810,     0.000,     0.000,     0.000,     0.000,   2
 37601,'LD',1,   1,   1,     8.510,     0.640,     0.000,     0.000,     0.000,     0.000,   2
 37602,'I ',1,   1,   2,     5.000,     1.500,     0.000,     0.000,     0.000,     0.000,   5
 37602,'MI',0,   1,   2,     5.440,     1.630,     0.000,     0.000,     0.000,     0.000,   5
 38001,'LD',1,   3,   1,     5.020,     1.170,     0.000,     0.000,     0.000,     0.000,   2
 38004,'LD',1,   3,   1,     2.320,     0.420,     0.000,     0.000,     0.000,     0.000,   2
 38204,'LD',1,  10,   1,     6.860,     2.660,     0.000,     0.000,     0.000,     0.000,   2
 38601,'LD',1,   1,   1,     2.910,     0.650,     0.000,     0.000,     0.000,     0.000,   2
 38701,'LD',1,   1,   1,     2.840,     0.750,     0.000,     0.000,     0.000,     0.000,   2
 38804,'LD',1,   3,   1,     2.620,    -0.790,     0.000,     0.000,     0.000,     0.000,   2
 39471,'HL',0,   4,   1,    20.030,     7.210,     0.000,     0.000,     0.000,     0.000,   3
 39472,'HL',1,   4,   1,    11.940,     4.290,     0.000,     0.000,     0.000,     0.000,   3
 39473,'HL',0,   4,   1,    20.030,     7.210,     0.000,     0.000,     0.000,     0.000,   3
 39601,'LD',1,   3,   1,     4.810,     0.770,     0.000,     0.000,     0.000,     0.000,   2
 39675,'HL',0,   3,   1,     5.000,     1.800,     0.000,     0.000,     0.000,     0.000,   3
 39801,'I ',1,   7,   2,    15.000,     4.500,     0.000,     0.000,     0.000,     0.000,   5
 39801,'MI',0,   7,   2,     8.500,     2.550,     0.000,     0.000,     0.000,     0.000,   5
 40001,'LD',1,   9,   1,     3.870,     1.220,     0.000,     0.000,     0.000,     0.000,   2
 40004,'LD',1,   9,   1,     7.510,    -0.870,     0.000,     0.000,     0.000,     0.000,   2
 40204,'LD',1,   3,   1,     9.140,     2.760,     0.000,     0.000,     0.000,     0.000,   2
 40404,'LD',1,   9,   1,     6.940,     0.870,     0.000,     0.000,     0.000,     0.000,   2
 40602,'I ',1,  10,   2,     2.000,     0.600,     0.000,     0.000,     0.000,     0.000,   5
 40602,'MI',0,  10,   2,     5.600,     1.680,     0.000,     0.000,     0.000,     0.000,   5
 40604,'LD',1,  10,   1,     8.000,     2.630,     0.000,     0.000,     0.000,     0.000,   2
 40801,'LD',1,   8,   1,     3.270,     0.270,     0.000,     0.000,     0.000,     0.000,   2
 41002,'I ',1,   1,   2,    18.000,     5.900,     0.000,     0.000,     0.000,     0.000,   5
 41102,'I ',1,   1,   2,    24.000,    11.630,     0.000,     0.000,     0.000,     0.000,   5
 42004,'LD',1,   8,   1,     8.580,     1.780,     0.000,     0.000,     0.000,     0.000,   2
 42102,'LD',1,   1,   1,     4.800,     0.270,     0.000,     0.000,     0.000,     0.000,   2
 42204,'LD',1,  10,   1,    13.710,     0.520,     0.000,     0.000,     0.000,     0.000,   2
 42501,'HL',0,   6,   1,     3.970,     1.430,     0.000,     0.000,     0.000,     0.000,   1
 42604,'LD',1,   7,   1,     7.740,     2.550,     0.000,     0.000,     0.000,     0.000,   2
 42802,'I ',1,   1,   2,    11.000,     3.300,     0.000,     0.000,     0.000,     0.000,   5
 42802,'MI',0,   1,   2,    15.000,     4.500,     0.000,     0.000,     0.000,     0.000,   5
 43604,'LD',1,   7,   1,     9.220,     0.580,     0.000,     0.000,     0.000,     0.000,   2
 44001,'LD',1,   1,   1,     6.390,     0.390,     0.000,     0.000,     0.000,     0.000,   2
 44802,'LD',1,   8,   1,     2.580,     0.840,     0.000,     0.000,     0.000,     0.000,   2
 44804,'LD',1,   8,   1,     8.420,     0.030,     0.000,     0.000,     0.000,     0.000,   2
 44901,'LD',1,   1,   1,     4.210,     0.000,     0.000,     0.000,     0.000,     0.000,   2
 45001,'I ',1,  10,   2,    21.000,     6.300,     0.000,     0.000,     0.000,     0.000,   5
 45001,'MI',0,  10,   2,    11.290,     3.380,     0.000,     0.000,     0.000,     0.000,   5
 45101,'LD',1,   1,   1,     3.920,     0.340,     0.000,     0.000,     0.000,     0.000,   2
 46210,'I ',1,   2,   2,    25.000,     7.500,     0.000,     0.000,     0.000,     0.000,   5
 46210,'MI',0,   2,   2,     9.840,     2.950,     0.000,     0.000,     0.000,     0.000,   5
 46214,'I ',1,   2,   2,    25.000,     7.500,     0.000,     0.000,     0.000,     0.000,   5
 46214,'MI',0,   2,   2,     9.840,     2.950,     0.000,     0.000,     0.000,     0.000,   5
 46224,'I ',1,   2,   2,    25.000,     7.500,     0.000,     0.000,     0.000,     0.000,   5
 46224,'MI',0,   2,   2,     9.840,     2.950,     0.000,     0.000,     0.000,     0.000,   5
 46501,'LD',1,   1,   1,     2.600,     1.000,     0.000,     0.000,     0.000,     0.000,   2
 46511,'HL',0,   1,   1,     9.360,     3.360,     0.000,     0.000,     0.000,     0.000,   1
 46804,'LD',1,   7,   1,    10.360,     3.000,     0.000,     0.000,     0.000,     0.000,   2
 47004,'LD',1,   9,   1,     7.700,     4.290,     0.000,     0.000,     0.000,     0.000,   2
 47402,'I ',1,   2,   2,     7.600,     2.280,     0.000,     0.000,     0.000,     0.000,   5
 47402,'MI',0,   2,   2,     7.600,     2.280,     0.000,     0.000,     0.000,     0.000,   5
 47601,'LD',1,   3,   1,     1.010,     0.160,     0.000,     0.000,     0.000,     0.000,   2
 49001,'I ',1,   6,   2,     2.290,     0.680,     0.000,     0.000,     0.000,     0.000,   5
 49474,'HL',1,   5,   1,     4.720,     1.700,     0.000,     0.000,     0.000,     0.000,   3
 49501,'LD',1,   9,   1,     7.530,     0.890,     0.000,     0.000,     0.000,     0.000,   2
 49504,'LD',1,   9,   1,     7.060,     2.010,     0.000,     0.000,     0.000,     0.000,   2
 49604,'LD',1,  10,   1,    15.000,     3.480,     0.000,     0.000,     0.000,     0.000,   2
 49804,'LD',1,   9,   1,    15.370,     0.100,     0.000,     0.000,     0.000,     0.000,   2
 50004,'LD',1,   9,   1,     6.320,     0.140,     0.000,     0.000,     0.000,     0.000,   2
...
0 / END OF LOAD DATA, BEGIN GENERATOR DATA
 10271,'1 ',    21.000,     0.000,    15.000,    -7.000,1.00000,  1021,    34.000,   0.00000,   0.22000,   0.00000,   0.00000,1.00000,0,   15.0,    21.000,     5.000,   3,1.0000
 10272,'2 ',    22.000,     0.000,    15.000,    -7.000,1.00000,  1021,    34.000,   0.00000,   0.22000,   0.00000,   0.00000,1.00000,0,   15.0,    22.000,     5.000,   3,1.0000
 10273,'3 ',    19.000,     0.000,    15.000,    -7.000,1.00000,  1021,    34.000,   0.00000,   0.22000,   0.00000,   0.00000,1.00000,0,   15.0,    19.000,     5.000,   3,1.0000
 10274,'4 ',    24.000,     0.000,    15.000,    -7.000,1.00000,  1021,    34.000,   0.00000,   0.22000,   0.00000,   0.00000,1.00000,0,   15.0,    24.000,     5.000,   3,1.0000
 10275,'3 ',     2.250,     0.000,     0.000,     0.000,1.04000,     0,     8.350,   0.00920,   0.16210,   0.00000,   0.00000,1.00000,1,    2.3,     7.500,     0.000,   7,1.0000
 10276,'2 ',     0.198,     0.000,     0.000,     0.000,1.04000,     0,     0.850,   0.00730,   0.13500,   0.00000,   0.00000,1.00000,1,    0.2,     0.660,     0.000,   7,1.0000
 10470,'1 ',   222.000,   -37.445,   270.000,  -170.000,1.00000,  1062,   500.000,   0.00270,   0.18000,   0.00000,   0.00000,1.00000,0,  250.0,   443.000,   222.000,   1,1.0000
 10471,'1 ',   270.000,     0.000,   159.000,   -75.000,1.00000,  1062,   318.800,   0.00000,   0.22500,   0.00000,   0.00000,1.00000,0,  153.0,   270.000,    40.000,   3,1.0000
 10472,'11',    90.000,     0.000,    60.000,   -30.000,1.00000,  1062,   100.900,   0.00000,   0.12500,   0.00000,   0.00000,1.00000,0,   60.0,    90.000,    13.000,   3,1.0000
 10473,'12',    90.000,     0.000,    60.000,   -30.000,1.00000,  1062,   100.900,   0.00000,   0.12500,   0.00000,   0.00000,1.00000,0,   60.0,    90.000,    13.000,   3,1.0000
 10474,'14',    90.000,     0.000,    60.000,   -30.000,1.00000,  1062,   100.900,   0.00000,   0.12500,   0.00000,   0.00000,1.00000,0,   60.0,    90.000,    13.000,   3,1.0000
 10671,'2 ',     1.440,    -1.940,    -1.940,    -1.940,1.04000,     0,     4.800,   0.02040,   0.33060,   0.00000,   0.00000,1.00000,1,    1.5,     4.800,     0.000,   7,1.0000
 10672,'3 ',     1.500,    -2.000,    -2.000,    -2.000,1.04000,     0,     6.000,   0.02040,   0.33060,   0.00000,   0.00000,1.00000,1,    1.6,     5.000,     0.000,   7,1.0000
 10673,'1 ',     0.360,    -0.480,    -0.480,    -0.480,1.04000,     0,     1.200,   0.02040,   0.33060,   0.00000,   0.00000,1.00000,1,    0.4,     1.200,     0.000,   7,1.0000
 10674,'5 ',     1.380,    -1.770,    -1.770,    -2.300,1.04000,     0,     4.600,   0.02570,   0.73700,   0.00000,   0.00000,1.00000,1,    1.7,     4.600,     0.000,   7,1.0000
 11204,'1 ',     1.000,     0.000,     0.000,     0.000,1.00000,     0,     1.600,   0.00000,   0.20000,   0.01000,   0.06000,1.00000,0,  100.0,     1.000,     0.000,   2,1.0000
 11271,'1 ',     7.560,     0.000,     0.000,     0.000,1.04000,     0,    28.000,   0.00320,   0.12400,   0.00000,   0.00000,1.00000,0,    7.9,    25.200,     0.000,   7,1.0000
 11370,'1 ',     6.600,    -2.009,     5.590,    -5.590,1.00000,  2131,    30.000,   0.00000,   0.57860,   0.00000,   0.00000,1.00000,1,    5.7,    22.000,     0.000,   7,1.0000
 11371,'1 ',    15.300,    -7.048,    20.000,   -20.000,1.00000,  2131,    66.000,   0.00000,   0.57860,   0.00000,   0.00000,1.00000,1,   20.0,    51.000,     0.000,   7,1.0000
 11374,'DW',     1.200,    -0.437,     1.310,    -1.310,1.00000,  2131,     4.000,   0.00900,   0.14800,   0.00000,   0.00000,1.00000,1,    1.2,     4.000,     0.000,   7,1.0000
 11375,'DW',     1.080,    -0.395,     1.180,    -1.180,1.00000,  2131,     4.000,   0.00900,   0.14800,   0.00000,   0.00000,1.00000,1,    1.1,     3.600,     0.000,   7,1.0000
 12371,'1 ',     9.450,    -7.000,     7.000,    -7.000,1.00000,  1231,    32.000,   0.02570,   0.73700,   0.00000,   0.00000,1.00000,1,    7.0,    31.500,     0.000,   7,1.0000
 12372,'2 ',     3.150,     0.000,     0.000,     0.000,1.00000,  1231,    10.000,   0.02570,   0.73700,   0.00000,   0.00000,1.00000,1,    3.5,    10.500,     0.000,   7,1.0000
 12571,'1 ',     5.835,     0.000,     0.000,     0.000,1.00000,  1251,    25.050,   0.00920,   0.16210,   0.00000,   0.00000,1.00000,1,    6.4,    19.450,     0.000,   7,1.0000
 12572,'TW',     0.900,    -0.990,     0.990,    -0.990,1.00000,  1251,     3.340,   0.00920,   0.16210,   0.00000,   0.00000,1.00000,1,    1.0,     3.000,     0.000,   7,1.0000
 12573,'TW',     2.700,    -2.960,     2.960,    -2.960,1.00000,  1251,    10.020,   0.00920,   0.16210,   0.00000,   0.00000,1.00000,1,    3.0,     9.000,     0.000,   7,1.0000
 12871,'DW',     0.690,     0.000,     0.000,    -0.660,1.00000,  1281,     2.300,   0.02570,   0.73700,   0.00000,   0.00000,1.00000,1,    0.6,     2.300,     0.000,   7,1.0000
 12872,'DW',     2.520,     0.000,     0.000,    -2.760,1.00000,  1281,     9.200,   0.02570,   0.73700,   0.00000,   0.00000,1.00000,1,    2.6,     8.400,     0.000,   7,1.0000
 12873,'1 ',     5.865,     0.000,     0.000,     0.000,1.00000,  1281,    20.700,   0.02570,   0.73700,   0.00000,   0.00000,1.00000,1,    6.1,    19.550,     0.000,   7,1.0000
 12874,'1 ',     2.550,     0.000,     0.000,     0.000,1.00000,  1281,     8.500,   0.00210,   0.08600,   0.00000,   0.00000,1.00000,1,    2.7,     8.500,     0.000,   7,1.0000
 13170,'1 ',     7.185,     0.000,     0.000,     0.000,1.00000,  1311,    25.300,   0.02570,   0.73700,   0.00000,   0.00000,1.00000,1,    4.6,    23.950,     0.000,   7,1.0000
 13171,'1 ',     3.000,     0.000,     0.000,     0.000,1.00000,  1311,    10.000,   0.00900,   0.14800,   0.00000,   0.00000,1.00000,1,    6.0,    10.000,     0.000,   7,1.0000
 13173,'DW',     2.550,     0.000,     0.000,     0.000,1.00000,  1311,    10.500,   0.00900,   0.14800,   0.00000,   0.00000,1.00000,1,    6.0,     8.500,     0.000,   7,1.0000
 13174,'DW',    10.755,     0.000,     0.000,     0.000,1.00000,  1311,    36.000,   0.02570,   0.73700,   0.00000,   0.00000,1.00000,1,   11.0,    35.850,     0.000,   7,1.0000
 13175,'DW',     3.450,     0.000,     0.000,     0.000,1.00000,  1311,    11.500,   0.02570,   0.73700,   0.00000,   0.00000,1.00000,1,    3.7,    11.500,     0.000,   7,1.0000
 13176,'DW',     5.400,     0.000,     0.000,     0.000,1.00000,  1311,    18.750,   0.00900,   0.16600,   0.00000,   0.00000,1.00000,1,    5.6,    18.000,     0.000,   7,1.0000
 13434,'10',     4.300,     0.000,     0.000,     0.000,1.00000,     0,     4.500,   0.00000,   0.20000,   0.00000,   0.10000,1.00000,0,    1.0,     4.300,     0.000,   1,1.0000
 13471,'1 ',     0.198,     0.000,     0.000,     0.000,1.00000,  1341,     0.660,   0.02040,   0.33060,   0.00000,   0.00000,1.00000,1,    0.2,     0.660,     0.000,   7,1.0000
 13472,'DW',     0.765,     0.000,     0.000,    -0.840,1.00000,  1341,     2.700,   0.03020,   0.86600,   0.00000,   0.00000,1.00000,1,    0.8,     2.550,     0.000,   7,1.0000
 13473,'4 ',     3.000,     0.000,     0.000,     0.000,1.00000,  1341,    10.000,   0.00320,   0.12400,   0.00000,   0.00000,1.00000,1,    4.7,    10.000,     0.000,   7,1.0000
 13474,'5 ',     1.800,     0.000,     0.000,     0.000,1.00000,  1341,     6.250,   0.00900,   0.16600,   0.00000,   0.00000,1.00000,1,    1.9,     6.000,     0.000,   7,1.0000
 13475,'6 ',     2.295,     0.000,     0.000,     0.000,1.00000,  1341,     7.650,   0.00730,   0.13500,   0.00000,   0.00000,1.00000,1,    2.4,     7.650,     0.000,   7,1.0000
 13476,'3 ',     3.570,     0.000,     0.000,     0.000,1.00000,  1341,    11.500,   0.02570,   0.73700,   0.00000,   0.00000,1.00000,1,    3.7,    11.900,     0.000,   7,1.0000
 13477,'2 ',     0.765,     0.000,     0.000,     0.000,1.00000,  1341,     2.700,   0.03020,   0.86600,   0.00000,   0.00000,1.00000,1,    0.8,     2.550,     0.000,   7,1.0000
 13479,'9 ',     1.020,     0.000,     0.000,     0.000,1.00000,     0,     3.400,   0.00730,   0.13500,   0.00000,   0.00000,1.00000,1,    1.1,     3.400,     0.000,   7,1.0000
 14073,'3 ',     1.935,    -2.400,    -2.400,    -2.400,1.04000,     0,     7.611,   0.02040,   0.33060,   0.00000,   0.00000,1.00000,1,    2.0,     6.450,     0.000,   7,1.0000
 14075,'1 ',    10.000,     0.000,     0.000,     0.000,1.00000,     0,    10.000,   0.00000,   0.15500,   0.00000,   0.00000,1.00000,0,    3.0,    10.000,     1.000,   1,1.0000
 14471,'1 ',     1.200,     0.000,     0.000,     0.000,1.04000,     0,     4.000,   0.00320,   0.12400,   0.00000,   0.00000,1.00000,1,    1.4,     4.000,     0.000,   7,1.0000
 14472,'1 ',     0.255,     0.000,     0.000,     0.000,1.00000,     0,     0.850,   0.00210,   0.08600,   0.00000,   0.00000,1.00000,1,    0.1,     0.850,     0.000,   1,1.0000
 14604,'1 ',     4.800,     0.000,     0.000,     0.000,1.05000,     0,     7.000,   0.00000,   0.15000,   0.00000,   0.10000,1.00000,0,    2.0,     4.800,     0.000,   5,1.0000
 14871,'1 ',     0.510,     0.000,     0.000,     0.000,1.04000,     0,     4.600,   0.02570,   0.73700,   0.00000,   0.00000,1.00000,1,    0.5,     1.700,     0.000,   7,1.0000
 14902,'OH',   450.000,     0.000,   279.000,  -178.000,1.00000,  3522,   540.000,   0.00000,   0.32770,   0.00000,   0.00000,1.00000,0,  279.0,   450.000,   225.000,   4,1.0000
 15171,'TW',    13.800,     4.395,    15.120,   -15.120,1.00000,  1511,    46.000,   0.00900,   0.14800,   0.00000,   0.00000,1.00000,1,   15.3,    46.000,     0.000,   7,1.0000
 15172,'DW',     3.000,    -3.290,     3.290,    -3.290,1.00000,     0,    10.000,   0.00900,   0.14800,   0.00000,   0.00000,1.00000,1,    3.1,    10.000,     0.000,   7,1.0000
 15173,'DW',     0.765,    -0.840,     0.840,    -0.840,1.00000,     0,     2.550,   0.00730,   0.13500,   0.00000,   0.00000,1.00000,1,    0.8,     2.550,     0.000,   7,1.0000
 15174,'DW',     6.000,    -6.570,     6.570,    -6.570,1.00000,     0,    20.000,   0.00900,   0.14800,   0.00000,   0.00000,1.00000,1,    6.2,    20.000,     0.000,   7,1.0000
 15571,'DW',     1.785,    -1.772,     1.960,    -1.960,1.00000,     0,     5.950,   0.00730,   0.13500,   0.00000,   0.00000,1.00000,1,    1.9,     5.950,     0.000,   7,1.0000
 15572,'DW',     5.400,    -3.844,     5.920,    -5.920,1.00000,     0,    18.750,   0.00900,   0.16600,   0.00000,   0.00000,1.00000,1,    5.6,    18.000,     0.000,   7,1.0000
 15573,'1 ',     6.000,     0.000,     0.000,     0.000,1.04000,     0,    23.000,   0.02570,   0.73700,   0.00000,   0.00000,1.00000,1,    6.2,    20.000,     0.000,   7,1.0000
 15771,'1 ',     0.594,    -0.300,    -0.300,    -0.300,1.00000,  3581,     1.980,   0.02040,   0.33060,   0.00000,   0.00000,1.00000,1,    1.5,     1.980,     0.000,   7,1.0000
 15772,'1 ',     0.900,    -1.920,    -1.920,    -1.920,1.00000,  3581,     3.000,   0.02040,   0.33060,   0.00000,   0.00000,1.00000,1,    1.5,     3.000,     0.000,   7,1.0000
 16371,'1 ',     1.020,     0.000,     0.000,     0.000,1.00000,     0,     3.400,   0.00730,   0.13500,   0.00000,   0.00000,1.00000,1,    1.1,     3.400,     0.000,   7,1.0000
 16372,'2 ',     1.020,     0.000,     0.000,     0.000,1.00000,     0,     3.400,   0.00730,   0.13500,   0.00000,   0.00000,1.00000,1,    1.1,     3.400,     0.000,   7,1.0000
 16373,'3 ',     2.040,     0.000,     0.000,     0.000,1.00000,     0,     6.800,   0.00730,   0.13500,   0.00000,   0.00000,1.00000,1,    2.1,     6.800,     0.000,   7,1.0000
 16374,'4 ',     2.295,     0.000,     0.000,     0.000,1.00000,     0,     7.650,   0.00210,   0.08600,   0.00000,   0.00000,1.00000,1,    2.4,     7.650,     0.000,   7,1.0000
 16375,'1 ',     1.188,     0.000,     0.000,     0.000,1.00000,     0,     4.250,   0.00210,   0.08600,   0.00000,   0.00000,1.00000,1,    1.3,     3.960,     0.000,   7,1.0000
 16376,'6 ',     1.485,     0.000,     0.000,     0.000,1.00000,     0,     5.100,   0.00210,   0.08600,   0.00000,   0.00000,1.00000,1,    1.5,     4.950,     0.000,   7,1.0000
 16377,'1 ',     2.700,     0.000,     0.000,     0.000,1.00000,     0,     9.200,   0.02570,   0.73700,   0.00000,   0.00000,1.00000,1,    3.0,     9.000,     0.000,   7,1.0000
 16378,'1 ',     0.480,     0.000,     0.000,     0.000,1.00000,     0,     1.700,   0.00210,   0.08600,   0.00000,   0.00000,1.00000,1,    0.5,     1.600,     0.000,   7,1.0000
 16379,'2 ',     0.087,     0.000,     0.000,     0.000,1.00000,     0,     0.323,   0.00320,   0.12400,   0.00000,   0.00000,1.00000,1,    1.3,     0.290,     0.000,   7,1.0000
 16571,'1 ',    11.340,     0.000,     0.000,     0.000,1.00000,  1651,    40.000,   0.02570,   0.73700,   0.00000,   0.00000,1.00000,1,   12.6,    37.800,     0.000,   7,1.0000
 16670,'1 ',     1.350,    -1.390,     0.000,    -3.070,1.00000,     0,     4.500,   0.03020,   0.86600,   0.00000,   0.00000,1.00000,1,    2.9,     4.500,     0.000,   7,1.0000
 16671,'1 ',     1.020,     0.000,     0.000,     0.000,1.04000,     0,     3.400,   0.00730,   0.13500,   0.00000,   0.00000,1.00000,1,    1.1,     3.400,     0.000,   7,1.0000
 16672,'2 ',     0.477,    -0.560,    -0.560,    -0.560,1.04000,     0,     1.700,   0.00730,   0.13500,   0.00000,   0.00000,1.00000,1,    0.5,     1.590,     0.000,   7,1.0000
 16674,'1 ',     5.610,     0.000,     0.000,     0.000,1.04000,     0,    18.700,   0.00730,   0.13500,   0.00000,   0.00000,1.00000,1,    5.8,    18.700,     0.000,   7,1.0000
 16675,'2 ',     2.400,    -2.650,    -2.650,    -2.650,1.04000,     0,     8.000,   0.02690,   0.76900,   0.00000,   0.00000,1.00000,1,    2.7,     8.000,     0.000,   7,1.0000
 16677,'1 ',     1.020,     0.000,     0.000,     0.000,1.00000,     0,     3.400,   0.00210,   0.08600,   0.00000,   0.00000,1.00000,1,    1.1,     3.400,     0.000,   7,1.0000
 16679,'3 ',     1.020,     0.000,     0.000,     0.000,1.00000,     0,     3.400,   0.00210,   0.08600,   0.00000,   0.00000,1.00000,1,    1.1,     3.400,     0.000,   7,1.0000
 16873,'3 ',     8.000,     0.000,     7.000,    -1.000,1.00000,  1681,    11.500,   0.00000,   0.25000,   0.00000,   0.00000,1.00000,0,    7.0,     8.000,     2.000,   3,1.0000
 17073,'3 ',    22.500,     0.000,    23.000,   -25.000,1.00000,  1701,    35.500,   0.00410,   0.18000,   0.00000,   0.00000,1.00000,0,    7.0,    22.500,     5.000,   3,1.0000
 17074,'4 ',    22.500,     0.000,    23.000,   -25.000,1.00000,  1701,    35.500,   0.00410,   0.18000,   0.00000,   0.00000,1.00000,0,    7.0,    22.500,     5.000,   3,1.0000
 17075,'7 ',     0.594,    -0.800,    -0.800,    -0.800,1.00000,     0,     1.980,   0.02040,   0.33060,   0.00000,   0.00000,1.00000,1,    0.6,     1.980,     0.000,   7,1.0000
 17077,'8 ',     0.006,     0.000,     0.000,     0.000,1.00000,     0,     1.200,   0.03020,   0.86600,   0.00000,   0.00000,1.00000,1,    0.3,     0.020,     0.000,   7,1.0000
 17671,'1 ',    10.000,     0.000,     7.000,    -3.000,1.00000,  1701,    12.500,   0.00000,   0.15000,   0.00000,   0.00000,1.00000,0,    7.0,    10.000,     3.000,   3,1.0000
 17672,'2 ',    10.000,     0.000,     7.000,    -3.000,1.00000,  1701,    12.500,   0.00000,   0.13500,   0.00000,   0.00000,1.00000,0,    7.0,    10.000,     3.000,   3,1.0000
 18271,'DW',     1.275,    -1.000,    -1.000,    -1.000,1.00000,     0,     4.250,   0.00730,   0.13500,   0.00000,   0.00000,1.00000,1,    1.2,     4.250,     0.000,   7,1.0000
 18471,'1 ',     1.497,     0.000,     0.000,     0.000,1.04000,     0,     5.200,   0.00550,   0.14300,   0.00000,   0.00000,1.00000,1,    1.5,     4.990,     0.000,   7,1.0000
 18472,'DW',     0.750,    -0.477,     0.000,    -0.820,1.00000,     0,     2.978,   0.00220,   0.41940,   0.00000,   0.00000,1.00000,1,    0.8,     2.500,     0.000,   7,1.0000
 18901,'OH',    58.000,     0.000,    30.000,   -21.320,1.00000,  1891,    68.235,   0.00000,   0.17000,   0.00000,   0.00000,1.00000,0,   30.0,    58.000,    20.000,   1,1.0000
 19081,'1 ',     0.765,     0.000,     0.000,     0.000,1.04000,     0,     2.550,   0.00730,   0.13500,   0.00000,   0.00000,1.00000,1,    0.8,     2.550,     0.000,   7,1.0000
 19082,'2 ',     0.510,     0.000,     0.000,     0.000,1.04000,     0,     1.700,   0.00730,   0.13500,   0.00000,   0.00000,1.00000,1,    0.5,     1.700,     0.000,   7,1.0000
 19083,'1 ',     1.497,     0.000,     0.000,     0.000,1.04000,     0,     6.900,   0.02570,   0.73700,   0.00000,   0.00000,1.00000,1,    1.6,     4.990,     0.000,   7,1.0000
 19084,'2 ',     1.350,    -1.500,    -1.500,    -1.500,1.04000,     0,     4.600,   0.02570,   0.73700,   0.00000,   0.00000,1.00000,1,    1.6,     4.500,     0.000,   7,1.0000
 19085,'1 ',     6.300,    -7.000,    -7.000,    -7.000,1.04000,     0,    23.824,   0.00220,   0.41940,   0.00000,   0.00000,1.00000,1,    6.6,    21.000,     0.000,   7,1.0000
 19101,'OH',    98.400,     0.000,    51.000,   -36.170,1.00000,  1911,   108.240,   0.00000,   0.14400,   0.00279,   0.11997,1.00000,0,   51.0,    98.400,    34.000,   1,1.0000
 19317,'SC',     0.000,    -6.000,     6.000,    -6.000,1.00000,  1931,     6.000,   0.00000,9999.00000,   0.00000,   0.00000,1.00000,1,    6.0,     0.000,     0.000,   1,1.0000
 19371,'1 ',     7.125,     0.000,     0.000,     0.000,1.00000,  1931,    29.780,   0.00220,   0.41940,   0.00000,   0.00000,1.00000,1,   11.0,    23.750,     0.000,   7,1.0000
 19372,'2 ',     3.315,     0.000,     0.000,     0.000,1.00000,  1931,    11.050,   0.00730,   0.13500,   0.00000,   0.00000,1.00000,1,   11.6,    11.050,     0.000,   7,1.0000
 19471,'1 ',    60.000,   -11.914,    94.000,   -50.000,1.00000,  1941,   153.000,   0.00000,   0.15300,   0.00000,   0.00000,1.00000,1,   75.0,   133.500,    60.000,   4,1.0000
 19472,'5 ',    58.274,     0.000,    38.000,   -23.000,1.00000,  1941,    66.625,   0.00200,   0.14450,   0.00000,   0.00000,1.00000,0,   41.0,    58.274,    19.700,   1,1.0000
 19473,'3 ',    58.274,     0.000,    40.000,   -23.000,1.00000,  1941,    66.625,   0.00200,   0.14450,   0.00000,   0.00000,1.00000,0,   41.0,    58.274,    19.700,   1,1.0000
 19601,'2 ',     1.755,     0.000,     0.000,     0.000,1.00000,     0,     6.500,   0.00000,   0.21900,   0.00000,   0.00000,1.00000,1,  100.0,     5.850,     0.000,   2,1.0000
 19771,'1 ',    12.750,     0.000,     0.000,     0.000,1.00000,  1971,    46.875,   0.00900,   0.16600,   0.00000,   0.00000,1.00000,1,    8.5,    42.500,     0.000,   7,1.0000
 19772,'TW',     2.550,    -2.790,     2.790,    -2.790,1.00000,  1971,     8.500,   0.00730,   0.13500,   0.00000,   0.00000,1.00000,1,    2.8,     8.500,     0.000,   7,1.0000
 19773,'TW',     9.000,    -9.860,     9.860,    -9.860,1.00000,  1971,    38.714,   0.00220,   0.41940,   0.00000,   0.00000,1.00000,1,    9.9,    30.000,     0.000,   7,1.0000
 19971,'1 ',     6.000,    -6.700,     6.700,    -6.700,1.00000,  1991,    20.700,   0.02570,   0.73700,   0.00000,   0.00000,1.00000,1,    6.7,    20.000,     0.000,   7,1.0000
 19972,'2 ',     0.690,     0.000,     0.000,     0.000,1.00000,  1991,     2.300,   0.02570,   0.73700,   0.00000,   0.00000,1.00000,1,    0.7,     2.300,     0.000,   7,1.0000
 19973,'3 ',     0.690,     0.000,     0.000,     0.000,1.00000,  1991,     2.300,   0.02570,   0.73700,   0.00000,   0.00000,1.00000,1,    1.1,     2.300,     0.000,   7,1.0000
 19974,'4 ',     4.830,    -4.000,     4.000,    -4.000,1.00000,  1991,    16.100,   0.02570,   0.73700,   0.00000,   0.00000,1.00000,1,    4.0,    16.100,     0.000,   7,1.0000
 21071,'2 ',     0.150,     0.000,     0.000,     0.000,1.04000,     0,     0.850,   0.00730,   0.13500,   0.00000,   0.00000,1.00000,1,    0.2,     0.500,     0.000,   7,1.0000
 21371,'TW',     8.550,    -3.348,     9.500,    -9.500,1.00000,  2131,    31.730,   0.00920,   0.16210,   0.00000,   0.00000,1.00000,1,    9.5,    28.500,     0.000,   7,1.0000
 21372,'2 ',     5.250,    -2.044,     5.800,    -5.800,1.00000,  2131,    23.380,   0.00920,   0.16210,   0.00000,   0.00000,1.00000,1,    5.8,    17.500,     0.000,   7,1.0000
 21871,'1 ',     0.510,     0.000,     0.000,     0.000,1.00000,     0,     1.700,   0.00730,   0.13500,   0.00000,   0.00000,1.00000,1,    0.5,     1.700,     0.000,   7,1.0000
 21872,'2 ',     0.750,    -1.017,    -0.990,    -1.280,1.00000,     0,     2.700,   0.03020,   0.86600,   0.00000,   0.00000,1.00000,1,    0.9,     2.500,     0.000,   7,1.0000
 21873,'1 ',     1.274,     0.000,     0.000,     0.000,1.00000,     0,     1.600,   0.02040,   0.33060,   0.00000,   0.00000,1.00000,0,  100.0,     1.274,     0.000,   1,1.0000
 22272,'DW',     5.100,    -3.937,     0.000,    -5.590,1.00000,     0,    16.000,   0.00900,   0.14800,   0.00000,   0.00000,1.00000,1,    5.3,    17.000,     0.000,   7,1.0000
 22273,'DW',     1.350,    -1.035,     0.000,    -1.480,1.00000,     0,     4.000,   0.02690,   0.76900,   0.00000,   0.00000,1.00000,1,    1.4,     4.500,     0.000,   7,1.0000
 22274,'2 ',     1.782,    -2.400,    -2.400,    -2.400,1.00000,     0,     5.940,   0.02040,   0.33060,   0.00000,   0.00000,1.00000,1,    1.9,     5.940,     0.000,   7,1.0000
 22275,'4 ',     1.275,     0.000,     0.000,     0.000,1.00000,     0,     4.250,   0.00730,   0.13500,   0.00000,   0.00000,1.00000,1,    1.3,     4.250,     0.000,   7,1.0000
 22276,'3 ',     1.785,     0.000,     0.000,     0.000,1.00000,     0,     6.680,   0.00920,   0.16210,   0.00000,   0.00000,1.00000,1,    1.9,     5.950,     0.000,   7,1.0000
 22277,'DW',     0.915,    -0.990,     0.000,    -0.990,1.00000,     0,     3.340,   0.00920,   0.16210,   0.00000,   0.00000,1.00000,1,    0.9,     3.050,     0.000,   7,1.0000
 22278,'1 ',     1.386,    -1.000,    -1.000,    -1.000,1.00000,     0,     4.620,   0.02040,   0.33060,   0.00000,   0.00000,1.00000,1,    1.4,     4.620,     0.000,   7,1.0000
 22292,'5 ',     6.000,     0.000,     0.000,     0.000,1.00000,     0,     6.000,   0.00000,   0.20000,   0.00000,   0.10000,1.00000,0,    2.0,     6.000,     0.000,   1,1.0000
 22371,'1 ',    17.850,     0.000,     0.000,     0.000,1.00000,  2231,    59.500,   0.00730,   0.13500,   0.00000,   0.00000,1.00000,1,   12.0,    59.500,     0.000,   7,1.0000
 22471,'1 ',     0.765,     0.000,     0.000,     0.000,1.04000,     0,     2.550,   0.00730,   0.13500,   0.00000,   0.00000,1.00000,1,    0.8,     2.550,     0.000,   7,1.0000
 22472,'2 ',     1.275,     0.000,     0.000,     0.000,1.04000,     0,     4.250,   0.00730,   0.13500,   0.00000,   0.00000,1.00000,1,    1.3,     4.250,     0.000,   7,1.0000
 22473,'1 ',     1.275,    -1.500,    -1.500,    -1.500,1.00000,     0,     4.250,   0.00730,   0.13500,   0.00000,   0.00000,1.00000,1,    1.3,     4.250,     0.000,   7,1.0000
 22671,'1 ',    52.100,     0.000,    32.600,   -22.700,1.02000,  2261,    62.000,   0.00000,   0.17900,   0.00000,   0.00000,1.00000,0,   32.6,    52.100,     1.200,   3,1.0000
 22672,'2 ',    52.100,     0.000,    32.600,   -22.700,1.02000,  2261,    62.000,   0.00000,   0.17900,   0.00000,   0.00000,1.00000,0,   32.6,    52.100,     1.200,   3,1.0000
...